<?xml version="1.0" encoding="UTF-8"?>

<!-- generated on 2024-02-14 14:32:34.368070 by osmWebWizard.py v1_19_0+0000-baa66a0f364
<configuration>
    <net-file value="C:\Users\kumaran\Downloads\sumo-win64-1.19.0\sumo-1.19.0\tools\2024-02-14-14-32-24\osm.net.xml.gz"/>
    <output-trip-file value="C:\Users\kumaran\Downloads\sumo-win64-1.19.0\sumo-1.19.0\tools\2024-02-14-14-32-24\osm.passenger.trips.xml"/>
    <route-file value="C:\Users\kumaran\Downloads\sumo-win64-1.19.0\sumo-1.19.0\tools\2024-02-14-14-32-24\osm.passenger.rou.xml"/>
    <prefix value="veh"/>
    <trip-attributes value="departLane=&quot;best&quot;"/>
    <fringe-start-attributes value="departSpeed=&quot;max&quot;"/>
    <vehicle-class value="passenger"/>
    <lanes value="True"/>
    <fringe-factor value="5"/>
    <allow-fringe.min-length value="1000.0"/>
    <via-edge-types value="highway.motorway,highway.motorway_link,highway.trunk_link,highway.primary_link,highway.secondary_link,highway.tertiary_link"/>
    <min-distance value="300.0"/>
    <min-distance.fringe value="10.0"/>
    <remove-loops value="True"/>
    <validate value="True"/>
    <insertion-density value="12.0"/>
</configuration>
-->

<!-- generated on 2024-02-14 14:32:34 by Eclipse SUMO duarouter Version 1.19.0
<configuration xmlns:xsi="http://www.w3.org/2001/XMLSchema-instance" xsi:noNamespaceSchemaLocation="http://sumo.dlr.de/xsd/duarouterConfiguration.xsd">

    <input>
        <net-file value="C:\Users\kumaran\Downloads\sumo-win64-1.19.0\sumo-1.19.0\tools\2024-02-14-14-32-24\osm.net.xml.gz"/>
        <route-files value="C:\Users\kumaran\Downloads\sumo-win64-1.19.0\sumo-1.19.0\tools\2024-02-14-14-32-24\osm.passenger.trips.xml"/>
    </input>

    <output>
        <output-file value="C:\Users\kumaran\Downloads\sumo-win64-1.19.0\sumo-1.19.0\tools\2024-02-14-14-32-24\osm.passenger.trips.xml.tmp"/>
        <alternatives-output value="NUL"/>
        <write-trips value="true"/>
    </output>

    <processing>
        <remove-loops value="true"/>
    </processing>

    <time>
        <begin value="0.0"/>
        <end value="3600.0"/>
    </time>

    <report>
        <no-warnings value="true"/>
        <ignore-errors value="true"/>
        <no-step-log value="true"/>
    </report>

</configuration>
-->

<routes xmlns:xsi="http://www.w3.org/2001/XMLSchema-instance" xsi:noNamespaceSchemaLocation="http://sumo.dlr.de/xsd/routes_file.xsd">
    <vType id="veh_passenger" vClass="passenger"/>
    <trip id="veh0" type="veh_passenger" depart="0.0" departLane="best" from="32324893" to="-1213231308#0"/>
    <trip id="veh1" type="veh_passenger" depart="0.0" departLane="best" from="-32482080#0" to="32425823"/>
    <trip id="veh2" type="veh_passenger" depart="0.0" departLane="best" from="32742046#1" to="-25593958#5"/>
    <trip id="veh4" type="veh_passenger" depart="0.0" departLane="best" from="-32425327" to="-1190557190"/>
    <trip id="veh6" type="veh_passenger" depart="0.0" departLane="best" from="32335796#3" to="-1232837615#0"/>
    <trip id="veh7" type="veh_passenger" depart="0.0" departLane="best" from="-32425816#1" to="218240177#1"/>
    <trip id="veh9" type="veh_passenger" depart="0.0" departLane="best" departSpeed="max" from="32427668" to="32424228#2"/>
    <trip id="veh10" type="veh_passenger" depart="0.0" departLane="best" from="-32742030" to="32424948#1"/>
    <trip id="veh11" type="veh_passenger" depart="0.0" departLane="best" from="687549371#1" to="-32718334#2"/>
    <trip id="veh13" type="veh_passenger" depart="0.0" departLane="best" from="32552091#1" to="22688411#9"/>
    <trip id="veh14" type="veh_passenger" depart="0.0" departLane="best" departSpeed="max" from="32427668" to="-32424963"/>
    <trip id="veh17" type="veh_passenger" depart="0.0" departLane="best" from="32506090#1" to="25593958#14"/>
    <trip id="veh19" type="veh_passenger" depart="0.0" departLane="best" from="32424955#1" to="32455827"/>
    <trip id="veh21" type="veh_passenger" depart="0.0" departLane="best" from="25593958#12" to="32425835#1"/>
    <trip id="veh26" type="veh_passenger" depart="0.0" departLane="best" from="32335796#1" to="23635145#2"/>
    <trip id="veh30" type="veh_passenger" depart="0.0" departLane="best" from="-32656698#6" to="-32455859#4"/>
    <trip id="veh33" type="veh_passenger" depart="0.0" departLane="best" from="34160170#1" to="1132671555#3"/>
    <trip id="veh36" type="veh_passenger" depart="0.0" departLane="best" departSpeed="max" from="22688411#0" to="32775993#1"/>
    <trip id="veh37" type="veh_passenger" depart="0.0" departLane="best" from="-545151399" to="-32425816#0"/>
    <trip id="veh45" type="veh_passenger" depart="0.0" departLane="best" from="1207727716#0" to="32424958#4"/>
    <trip id="veh46" type="veh_passenger" depart="0.0" departLane="best" from="32405606#0" to="1232046796"/>
    <trip id="veh47" type="veh_passenger" depart="0.0" departLane="best" from="-32455859#1" to="-32335303#1"/>
    <trip id="veh48" type="veh_passenger" depart="0.0" departLane="best" from="32335796#3" to="-995113974"/>
    <trip id="veh49" type="veh_passenger" depart="0.0" departLane="best" from="1132671555#0" to="673508874#0"/>
    <trip id="veh50" type="veh_passenger" depart="0.0" departLane="best" from="32690499#2" to="-32455845#2"/>
    <trip id="veh51" type="veh_passenger" depart="0.0" departLane="best" from="-34160169#1" to="32684578"/>
    <trip id="veh52" type="veh_passenger" depart="0.0" departLane="best" from="23635145#2" to="-32424228#2"/>
    <trip id="veh53" type="veh_passenger" depart="0.0" departLane="best" from="32425820" to="1232046806"/>
    <trip id="veh55" type="veh_passenger" depart="0.0" departLane="best" from="-1080497670#0" to="-32690499#12"/>
    <trip id="veh58" type="veh_passenger" depart="0.0" departLane="best" from="32552387#2" to="-207135923"/>
    <trip id="veh63" type="veh_passenger" depart="0.0" departLane="best" from="1150883577#3" to="1232839661"/>
    <trip id="veh64" type="veh_passenger" depart="0.0" departLane="best" from="-32455845#4" to="-32690499#10"/>
    <trip id="veh65" type="veh_passenger" depart="0.0" departLane="best" from="-995109162#0" to="-32425321#0"/>
    <trip id="veh66" type="veh_passenger" depart="0.0" departLane="best" from="1232838006#1" to="-32424963"/>
    <trip id="veh70" type="veh_passenger" depart="0.0" departLane="best" from="327358398" to="-218240177#0"/>
    <trip id="veh71" type="veh_passenger" depart="0.0" departLane="best" from="-32425833" to="-32425816#1"/>
    <trip id="veh73" type="veh_passenger" depart="0.0" departLane="best" from="-32425831" to="32801898#2"/>
    <trip id="veh75" type="veh_passenger" depart="0.0" departLane="best" from="-32425322#1" to="32404506#1"/>
    <trip id="veh77" type="veh_passenger" depart="0.0" departLane="best" from="1150883577#1" to="32425835#2"/>
    <trip id="veh78" type="veh_passenger" depart="0.0" departLane="best" departSpeed="max" from="32427668" to="-32424971#1"/>
    <trip id="veh79" type="veh_passenger" depart="0.0" departLane="best" from="-32054411#3" to="-995113969"/>
    <trip id="veh80" type="veh_passenger" depart="0.0" departLane="best" from="-995113967" to="-32324754#0"/>
    <trip id="veh89" type="veh_passenger" depart="0.0" departLane="best" from="-32552262#0" to="32424955#2"/>
    <trip id="veh90" type="veh_passenger" depart="0.0" departLane="best" from="1150883577#7" to="-32425322#1"/>
    <trip id="veh92" type="veh_passenger" depart="0.0" departLane="best" from="32455845#4" to="32425835#1"/>
    <trip id="veh93" type="veh_passenger" depart="0.0" departLane="best" from="1132671555#1" to="-995109162#0"/>
    <trip id="veh96" type="veh_passenger" depart="0.0" departLane="best" from="-32424948#0" to="-32552091#0"/>
    <trip id="veh99" type="veh_passenger" depart="0.0" departLane="best" from="-32424950" to="723224524#0"/>
    <trip id="veh100" type="veh_passenger" depart="0.0" departLane="best" from="25593958#13" to="-32424967"/>
    <trip id="veh101" type="veh_passenger" depart="0.0" departLane="best" from="22688411#3" to="32405221"/>
    <trip id="veh104" type="veh_passenger" depart="0.0" departLane="best" from="22688411#3" to="-25593958#16"/>
    <trip id="veh105" type="veh_passenger" depart="0.0" departLane="best" from="-928072126" to="217801934#7"/>
    <trip id="veh107" type="veh_passenger" depart="0.0" departLane="best" from="-32425312#0" to="32424957#0"/>
    <trip id="veh108" type="veh_passenger" depart="0.0" departLane="best" from="-32405176#0" to="-32552269#0"/>
    <trip id="veh109" type="veh_passenger" depart="0.0" departLane="best" from="-32656707" to="32425313"/>
    <trip id="veh110" type="veh_passenger" depart="0.0" departLane="best" from="-218240164" to="1132671555#3"/>
    <trip id="veh111" type="veh_passenger" depart="0.0" departLane="best" from="995196835" to="-995196831"/>
    <trip id="veh112" type="veh_passenger" depart="0.0" departLane="best" from="-218240165" to="32425322#0"/>
    <trip id="veh115" type="veh_passenger" depart="0.0" departLane="best" from="32527931#3" to="32424949"/>
    <trip id="veh116" type="veh_passenger" depart="0.0" departLane="best" from="23635145#4" to="-995114825"/>
    <trip id="veh118" type="veh_passenger" depart="0.0" departLane="best" from="-32455859#1" to="32552262#2"/>
    <trip id="veh120" type="veh_passenger" depart="0.0" departLane="best" from="-32405176#2" to="-32340581#2"/>
    <trip id="veh121" type="veh_passenger" depart="0.0" departLane="best" from="32335754#0" to="1248120002"/>
    <trip id="veh122" type="veh_passenger" depart="0.0" departLane="best" from="32482066#0" to="22688411#9"/>
    <trip id="veh123" type="veh_passenger" depart="0.0" departLane="best" from="-32054411#2" to="32455845#3"/>
    <trip id="veh124" type="veh_passenger" depart="0.0" departLane="best" from="1150883577#8" to="32801898#1"/>
    <trip id="veh126" type="veh_passenger" depart="0.0" departLane="best" from="-995109162#1" to="32482096"/>
    <trip id="veh127" type="veh_passenger" depart="0.0" departLane="best" from="-1094416977" to="32425821"/>
    <trip id="veh128" type="veh_passenger" depart="0.0" departLane="best" from="32324754#1" to="-32455845#0"/>
    <trip id="veh130" type="veh_passenger" depart="0.0" departLane="best" from="-218240176" to="32691640"/>
    <trip id="veh133" type="veh_passenger" depart="0.0" departLane="best" from="32552387#3" to="32776117#0"/>
    <trip id="veh135" type="veh_passenger" depart="0.0" departLane="best" from="32776117#0" to="32425319#1"/>
    <trip id="veh136" type="veh_passenger" depart="0.0" departLane="best" from="-32426913#1" to="32335303#0"/>
    <trip id="veh138" type="veh_passenger" depart="0.0" departLane="best" from="-687550032#1" to="25593958#17"/>
    <trip id="veh141" type="veh_passenger" depart="0.0" departLane="best" from="32455820" to="32690641"/>
    <trip id="veh143" type="veh_passenger" depart="0.0" departLane="best" departSpeed="max" from="32427668" to="32656698#4"/>
    <trip id="veh144" type="veh_passenger" depart="0.0" departLane="best" from="32426911#2" to="32335754#1"/>
    <trip id="veh145" type="veh_passenger" depart="0.0" departLane="best" from="32690499#10" to="32552406#0"/>
    <trip id="veh146" type="veh_passenger" depart="0.0" departLane="best" from="-32425821" to="32455859#0"/>
    <trip id="veh147" type="veh_passenger" depart="0.0" departLane="best" from="1132671558#1" to="-32552363"/>
    <trip id="veh148" type="veh_passenger" depart="0.0" departLane="best" from="32426916" to="-32425829"/>
    <trip id="veh150" type="veh_passenger" depart="0.0" departLane="best" from="32335303#1" to="545151399"/>
    <trip id="veh153" type="veh_passenger" depart="0.0" departLane="best" from="84084461#4" to="32424960#3"/>
    <trip id="veh154" type="veh_passenger" depart="0.0" departLane="best" from="-723224524#2" to="-32455859#0"/>
    <trip id="veh155" type="veh_passenger" depart="0.0" departLane="best" from="-32335762" to="-995113974"/>
    <trip id="veh156" type="veh_passenger" depart="0.0" departLane="best" from="23635145#0" to="1207727719"/>
    <trip id="veh160" type="veh_passenger" depart="0.0" departLane="best" from="1232837615#2" to="32424958#3"/>
    <trip id="veh161" type="veh_passenger" depart="0.0" departLane="best" from="-32425310" to="32404506#1"/>
    <trip id="veh163" type="veh_passenger" depart="0.0" departLane="best" from="32356665#0" to="-32690499#7"/>
    <trip id="veh164" type="veh_passenger" depart="0.0" departLane="best" from="-32656698#2" to="-32552091#1"/>
    <trip id="veh165" type="veh_passenger" depart="0.0" departLane="best" from="32424961#0" to="-32552269#0"/>
    <trip id="veh166" type="veh_passenger" depart="0.0" departLane="best" from="-32552406#0" to="-723224524#1"/>
    <trip id="veh169" type="veh_passenger" depart="0.0" departLane="best" from="32801767#3" to="-25593958#1"/>
    <trip id="veh170" type="veh_passenger" depart="0.0" departLane="best" from="32552269#1" to="1232838007"/>
    <trip id="veh171" type="veh_passenger" depart="0.0" departLane="best" from="-1080497670#0" to="-32541193#0"/>
    <trip id="veh173" type="veh_passenger" depart="0.0" departLane="best" from="32340581#4" to="1148771264"/>
    <trip id="veh175" type="veh_passenger" depart="0.0" departLane="best" from="1150883577#2" to="32801712#2"/>
    <trip id="veh176" type="veh_passenger" depart="0.0" departLane="best" from="-1123838325" to="-32424957#0"/>
    <trip id="veh177" type="veh_passenger" depart="0.0" departLane="best" from="-25593958#21" to="1207729176#1"/>
    <trip id="veh178" type="veh_passenger" depart="0.0" departLane="best" from="32054411#0" to="32718334#0"/>
    <trip id="veh179" type="veh_passenger" depart="0.0" departLane="best" from="-32455859#3" to="32425312#1"/>
    <trip id="veh180" type="veh_passenger" depart="0.0" departLane="best" from="-32405176#2" to="-32425827#1"/>
    <trip id="veh181" type="veh_passenger" depart="0.0" departLane="best" from="-32425309#0" to="-1213231308#0"/>
    <trip id="veh182" type="veh_passenger" depart="0.0" departLane="best" from="-32426908#3" to="1148771264"/>
    <trip id="veh183" type="veh_passenger" depart="0.0" departLane="best" from="32552262#2" to="218240164"/>
    <trip id="veh185" type="veh_passenger" depart="0.0" departLane="best" from="-32424975" to="32424227#2"/>
    <trip id="veh186" type="veh_passenger" depart="0.0" departLane="best" from="1188581190#0" to="-32426908#2"/>
    <trip id="veh187" type="veh_passenger" depart="0.0" departLane="best" from="32340581#6" to="-1150613453"/>
    <trip id="veh188" type="veh_passenger" depart="0.0" departLane="best" from="-32335305#1" to="-995109163#1"/>
    <trip id="veh189" type="veh_passenger" depart="0.0" departLane="best" from="-32424959#1" to="687550032#0"/>
    <trip id="veh190" type="veh_passenger" depart="0.0" departLane="best" from="-1229580586#0" to="-1232838006#0"/>
    <trip id="veh191" type="veh_passenger" depart="0.0" departLane="best" from="-32426913#0" to="32552262#0"/>
    <trip id="veh194" type="veh_passenger" depart="0.0" departLane="best" from="22688411#3" to="449311658"/>
    <trip id="veh195" type="veh_passenger" depart="0.0" departLane="best" from="-32742032#1" to="23635145#5"/>
    <trip id="veh197" type="veh_passenger" depart="0.0" departLane="best" from="-32775993#0" to="32424978"/>
    <trip id="veh198" type="veh_passenger" depart="0.0" departLane="best" from="1150883577#2" to="32455819#1"/>
    <trip id="veh199" type="veh_passenger" depart="0.0" departLane="best" from="-32426912#1" to="-32324754#1"/>
    <trip id="veh200" type="veh_passenger" depart="0.0" departLane="best" from="32425824" to="1213231308#1"/>
    <trip id="veh203" type="veh_passenger" depart="0.0" departLane="best" from="32455861" to="-32684571"/>
    <trip id="veh204" type="veh_passenger" depart="0.0" departLane="best" from="-32425834#1" to="32424222"/>
    <trip id="veh206" type="veh_passenger" depart="0.0" departLane="best" from="-723224524#0" to="-1232608109"/>
    <trip id="veh207" type="veh_passenger" depart="0.0" departLane="best" from="84084461#3" to="-32425316#0"/>
    <trip id="veh209" type="veh_passenger" depart="0.0" departLane="best" departSpeed="max" from="22688411#0" to="32424227#1"/>
    <trip id="veh210" type="veh_passenger" depart="0.0" departLane="best" from="32552387#2" to="32425325#1"/>
    <trip id="veh212" type="veh_passenger" depart="0.0" departLane="best" from="32801767#4" to="32425316#0"/>
    <trip id="veh215" type="veh_passenger" depart="0.0" departLane="best" from="-1248120002" to="22688411#8"/>
    <trip id="veh216" type="veh_passenger" depart="0.0" departLane="best" from="995114840" to="-1229585237"/>
    <trip id="veh217" type="veh_passenger" depart="0.0" departLane="best" from="-32718334#1" to="32405579#4"/>
    <trip id="veh218" type="veh_passenger" depart="0.0" departLane="best" from="687549371#0" to="-32424955#0"/>
    <trip id="veh220" type="veh_passenger" depart="0.0" departLane="best" from="-25593958#21" to="-1220224108"/>
    <trip id="veh222" type="veh_passenger" depart="0.0" departLane="best" from="1220224108" to="32335303#3"/>
    <trip id="veh224" type="veh_passenger" depart="0.0" departLane="best" from="32425321#0" to="32690499#3"/>
    <trip id="veh227" type="veh_passenger" depart="0.0" departLane="best" from="-32426915#1" to="25593958#15"/>
    <trip id="veh228" type="veh_passenger" depart="0.0" departLane="best" from="-1207729176#1" to="1232046806"/>
    <trip id="veh230" type="veh_passenger" depart="0.0" departLane="best" from="32340581#0" to="32425834#0"/>
    <trip id="veh231" type="veh_passenger" depart="0.0" departLane="best" from="-32340581#10" to="-32425316#2"/>
    <trip id="veh232" type="veh_passenger" depart="0.0" departLane="best" from="35972824#3" to="32425309#0"/>
    <trip id="veh233" type="veh_passenger" depart="0.0" departLane="best" from="-1207730023#0" to="32424228#1"/>
    <trip id="veh236" type="veh_passenger" depart="0.0" departLane="best" from="32424955#4" to="1132671558#4"/>
    <trip id="veh237" type="veh_passenger" depart="0.0" departLane="best" from="32335754#1" to="-1213258351"/>
    <trip id="veh239" type="veh_passenger" depart="0.0" departLane="best" from="-687550032#1" to="32775968"/>
    <trip id="veh240" type="veh_passenger" depart="0.0" departLane="best" from="-32424959#2" to="-218240177#0"/>
    <trip id="veh242" type="veh_passenger" depart="0.0" departLane="best" from="32324893" to="32425823"/>
    <trip id="veh243" type="veh_passenger" depart="0.0" departLane="best" from="-32552262#2" to="22688411#7"/>
    <trip id="veh244" type="veh_passenger" depart="0.0" departLane="best" from="-32352896#0" to="995113964"/>
    <trip id="veh245" type="veh_passenger" depart="0.0" departLane="best" from="32426908#0" to="32775993#1"/>
    <trip id="veh247" type="veh_passenger" depart="0.0" departLane="best" from="-1207729175" to="32742032#1"/>
    <trip id="veh248" type="veh_passenger" depart="0.0" departLane="best" from="-32552262#1" to="-32455861"/>
    <trip id="veh249" type="veh_passenger" depart="0.0" departLane="best" from="-32335305#0" to="723224524#0"/>
    <trip id="veh250" type="veh_passenger" depart="0.0" departLane="best" from="32054411#4" to="32506087"/>
    <trip id="veh251" type="veh_passenger" depart="0.0" departLane="best" from="32424956#1" to="-995114825"/>
    <trip id="veh252" type="veh_passenger" depart="0.0" departLane="best" from="-32424977#0" to="768131219#1"/>
    <trip id="veh255" type="veh_passenger" depart="0.0" departLane="best" from="995114840" to="-32424965#0"/>
    <trip id="veh256" type="veh_passenger" depart="0.0" departLane="best" from="-32455859#4" to="-32552269#1"/>
    <trip id="veh259" type="veh_passenger" depart="0.0" departLane="best" from="32552269#0" to="-32424962"/>
    <trip id="veh261" type="veh_passenger" depart="0.0" departLane="best" from="-32742030" to="-32690499#9"/>
    <trip id="veh262" type="veh_passenger" depart="0.0" departLane="best" from="-32424953#1" to="32482096"/>
    <trip id="veh263" type="veh_passenger" depart="0.0" departLane="best" from="-1189306231" to="35972824#1"/>
    <trip id="veh264" type="veh_passenger" depart="0.0" departLane="best" from="25593958#3" to="32424958#4"/>
    <trip id="veh265" type="veh_passenger" depart="0.0" departLane="best" from="1150883577#8" to="32425319#1"/>
    <trip id="veh268" type="veh_passenger" depart="0.0" departLane="best" from="32424231#0" to="-32552387#0"/>
    <trip id="veh269" type="veh_passenger" depart="0.0" departLane="best" from="218240177#1" to="1132671558#5"/>
    <trip id="veh270" type="veh_passenger" depart="0.0" departLane="best" from="-1232046798#0" to="-995109163#1"/>
    <trip id="veh271" type="veh_passenger" depart="0.0" departLane="best" from="-32425316#0" to="32690499#9"/>
    <trip id="veh272" type="veh_passenger" depart="0.0" departLane="best" from="-32424953#3" to="-32455859#8"/>
    <trip id="veh273" type="veh_passenger" depart="0.0" departLane="best" from="-32426915#0" to="32352896#0"/>
    <trip id="veh274" type="veh_passenger" depart="0.0" departLane="best" from="-32424972" to="-32340581#8"/>
    <trip id="veh275" type="veh_passenger" depart="0.0" departLane="best" from="-32424965#1" to="32425325#0"/>
    <trip id="veh276" type="veh_passenger" depart="0.0" departLane="best" from="1150883577#6" to="32424960#1"/>
    <trip id="veh277" type="veh_passenger" depart="0.0" departLane="best" from="995109162#0" to="1220224109"/>
    <trip id="veh278" type="veh_passenger" depart="0.0" departLane="best" from="32527931#3" to="32324847#0"/>
    <trip id="veh279" type="veh_passenger" depart="0.0" departLane="best" from="1232598708" to="32482066#3"/>
    <trip id="veh281" type="veh_passenger" depart="0.0" departLane="best" from="32424952#0" to="32356665#0"/>
    <trip id="veh284" type="veh_passenger" depart="0.0" departLane="best" from="32424965#0" to="-1232839661"/>
    <trip id="veh288" type="veh_passenger" depart="0.0" departLane="best" from="1236543632#0" to="-32424227#0"/>
    <trip id="veh292" type="veh_passenger" depart="0.0" departLane="best" from="32426913#1" to="-32425827#2"/>
    <trip id="veh296" type="veh_passenger" depart="0.0" departLane="best" from="32425309#3" to="35972824#1"/>
    <trip id="veh297" type="veh_passenger" depart="0.0" departLane="best" from="32353665#0" to="-32424948#3"/>
    <trip id="veh299" type="veh_passenger" depart="0.0" departLane="best" from="-32425834#1" to="32424952#2"/>
    <trip id="veh300" type="veh_passenger" depart="0.0" departLane="best" from="-32424953#3" to="1132671555#1"/>
    <trip id="veh302" type="veh_passenger" depart="0.0" departLane="best" from="32426911#2" to="25593958#9"/>
    <trip id="veh304" type="veh_passenger" depart="0.0" departLane="best" from="995109163#1" to="1232836203"/>
    <trip id="veh305" type="veh_passenger" depart="0.0" departLane="best" from="32335796#1" to="32802770#1"/>
    <trip id="veh307" type="veh_passenger" depart="0.0" departLane="best" from="-32424955#1" to="-32552387#2"/>
    <trip id="veh309" type="veh_passenger" depart="0.0" departLane="best" from="-32541195" to="32356467#1"/>
    <trip id="veh310" type="veh_passenger" depart="0.0" departLane="best" from="32424227#2" to="32424231#1"/>
    <trip id="veh311" type="veh_passenger" depart="0.0" departLane="best" from="-1232046796" to="-995113970"/>
    <trip id="veh316" type="veh_passenger" depart="0.0" departLane="best" from="-32405176#1" to="-32455859#6"/>
    <trip id="veh317" type="veh_passenger" depart="0.0" departLane="best" from="-1232046796" to="32425317"/>
    <trip id="veh318" type="veh_passenger" depart="0.0" departLane="best" from="1150883577#0" to="32340581#10"/>
    <trip id="veh322" type="veh_passenger" depart="0.0" departLane="best" from="-32776117#0" to="32691640"/>
    <trip id="veh323" type="veh_passenger" depart="0.0" departLane="best" from="32690499#7" to="32424222"/>
    <trip id="veh325" type="veh_passenger" depart="0.0" departLane="best" from="32690499#11" to="-84084461#3"/>
    <trip id="veh326" type="veh_passenger" depart="0.0" departLane="best" from="-687543165" to="-1207729176#0"/>
    <trip id="veh327" type="veh_passenger" depart="0.0" departLane="best" from="-1232840381#0" to="-84084460"/>
    <trip id="veh328" type="veh_passenger" depart="0.0" departLane="best" from="-32424968#1" to="-34160169#1"/>
    <trip id="veh329" type="veh_passenger" depart="0.0" departLane="best" from="-32425323" to="25593958#9"/>
    <trip id="veh330" type="veh_passenger" depart="0.0" departLane="best" from="32425816#0" to="32425310"/>
    <trip id="veh335" type="veh_passenger" depart="0.0" departLane="best" from="-32424951" to="1232840381#1"/>
    <trip id="veh338" type="veh_passenger" depart="0.0" departLane="best" from="1132671558#1" to="-32340581#4"/>
    <trip id="veh339" type="veh_passenger" depart="0.0" departLane="best" from="32527931#0" to="1150883577#9"/>
    <trip id="veh346" type="veh_passenger" depart="0.0" departLane="best" from="-1207729176#1" to="32455859#6"/>
    <trip id="veh347" type="veh_passenger" depart="0.0" departLane="best" from="32527931#2" to="-32552262#1"/>
    <trip id="veh349" type="veh_passenger" depart="0.0" departLane="best" from="1150883577#9" to="32424219#1"/>
    <trip id="veh350" type="veh_passenger" depart="0.0" departLane="best" from="1232838006#0" to="-32775985#0"/>
    <trip id="veh352" type="veh_passenger" depart="0.0" departLane="best" from="1132671555#1" to="-32690499#1"/>
    <trip id="veh353" type="veh_passenger" depart="0.0" departLane="best" from="-32424970#1" to="32424228#1"/>
    <trip id="veh355" type="veh_passenger" depart="0.0" departLane="best" from="-32425314" to="32424952#0"/>
    <trip id="veh357" type="veh_passenger" depart="0.0" departLane="best" from="-32356665#0" to="32455859#7"/>
    <trip id="veh360" type="veh_passenger" depart="0.0" departLane="best" from="22688411#1" to="-32684571"/>
    <trip id="veh362" type="veh_passenger" depart="0.0" departLane="best" from="-1229593660#2" to="1132671555#3"/>
    <trip id="veh363" type="veh_passenger" depart="0.0" departLane="best" from="32340581#4" to="32424948#0"/>
    <trip id="veh364" type="veh_passenger" depart="0.0" departLane="best" from="1150883577#0" to="-84084461#2"/>
    <trip id="veh365" type="veh_passenger" depart="0.0" departLane="best" from="327358398" to="32424222"/>
    <trip id="veh366" type="veh_passenger" depart="0.0" departLane="best" from="32335796#3" to="-32552269#1"/>
    <trip id="veh367" type="veh_passenger" depart="0.0" departLane="best" from="32552269#2" to="-32552406#1"/>
    <trip id="veh369" type="veh_passenger" depart="0.0" departLane="best" from="32690499#10" to="-1229593660#1"/>
    <trip id="veh373" type="veh_passenger" depart="0.0" departLane="best" from="-32424948#1" to="-32801767#4"/>
    <trip id="veh376" type="veh_passenger" depart="0.0" departLane="best" from="-32405616" to="1229591858#3"/>
    <trip id="veh378" type="veh_passenger" depart="0.0" departLane="best" from="-32424957#0" to="-25593958#11"/>
    <trip id="veh379" type="veh_passenger" depart="0.0" departLane="best" from="-32426900" to="34160169#1"/>
    <trip id="veh380" type="veh_passenger" depart="0.0" departLane="best" from="32405606#0" to="1132671555#3"/>
    <trip id="veh383" type="veh_passenger" depart="0.0" departLane="best" from="32801712#2" to="32405579#2"/>
    <trip id="veh385" type="veh_passenger" depart="0.0" departLane="best" from="-32775985#1" to="218240176"/>
    <trip id="veh386" type="veh_passenger" depart="0.0" departLane="best" from="32324847#1" to="-995109163#0"/>
    <trip id="veh387" type="veh_passenger" depart="0.0" departLane="best" from="-32426913#1" to="32552047#0"/>
    <trip id="veh392" type="veh_passenger" depart="0.0" departLane="best" from="995109163#0" to="-32340581#9"/>
    <trip id="veh394" type="veh_passenger" depart="0.0" departLane="best" from="-32424219#1" to="-32425308#1"/>
    <trip id="veh396" type="veh_passenger" depart="0.0" departLane="best" from="1189558357" to="32801898#0"/>
    <trip id="veh397" type="veh_passenger" depart="0.0" departLane="best" from="23635145#1" to="-32801767#4"/>
    <trip id="veh398" type="veh_passenger" depart="0.0" departLane="best" from="32324754#0" to="-25593958#17"/>
    <trip id="veh399" type="veh_passenger" depart="0.0" departLane="best" from="32405579#2" to="32424959#0"/>
    <trip id="veh402" type="veh_passenger" depart="0.0" departLane="best" from="-995196827#1" to="-217801934#0"/>
    <trip id="veh404" type="veh_passenger" depart="0.0" departLane="best" from="-32552047#0" to="32425309#2"/>
    <trip id="veh405" type="veh_passenger" depart="0.0" departLane="best" from="-32424959#1" to="32404506#1"/>
    <trip id="veh408" type="veh_passenger" depart="0.0" departLane="best" departSpeed="max" from="32427668" to="32425309#1"/>
    <trip id="veh409" type="veh_passenger" depart="0.0" departLane="best" from="-32738737#0" to="32340581#11"/>
    <trip id="veh410" type="veh_passenger" depart="0.0" departLane="best" from="-750611636" to="32405579#4"/>
    <trip id="veh411" type="veh_passenger" depart="0.0" departLane="best" from="32424965#1" to="995110738"/>
    <trip id="veh414" type="veh_passenger" depart="0.0" departLane="best" from="1207727717#3" to="1232046796"/>
    <trip id="veh415" type="veh_passenger" depart="0.0" departLane="best" from="1132671555#1" to="32405176#2"/>
    <trip id="veh418" type="veh_passenger" depart="0.0" departLane="best" from="-32335762" to="32425835#2"/>
    <trip id="veh419" type="veh_passenger" depart="0.0" departLane="best" from="1213231308#0" to="32691642#1"/>
    <trip id="veh422" type="veh_passenger" depart="0.0" departLane="best" from="32482066#1" to="-32802770#3"/>
    <trip id="veh423" type="veh_passenger" depart="0.0" departLane="best" from="32552269#4" to="-723224524#1"/>
    <trip id="veh426" type="veh_passenger" depart="0.0" departLane="best" from="-32054411#3" to="-327357440"/>
    <trip id="veh427" type="veh_passenger" depart="0.0" departLane="best" from="-32405176#4" to="1132671555#0"/>